15
Phototropolone
C          0.91022       -0.15897       -0.58459
C          1.17638       -1.30876        0.39344
C         -0.11733       -1.57360        0.59172
C          1.11015        1.22762       -0.03671
C         -0.59709       -0.46533       -0.34342
C         -0.01162        1.74716        0.48545
C         -1.13789        0.80683        0.31506
H          1.25944       -0.30328       -1.61339
H          2.10040       -1.70936        0.80635
H         -0.66345       -2.29362        1.19880
H          2.07830        1.72980       -0.03641
H         -0.12312        2.71929        0.96108
O         -2.31290        0.98869        0.55691
O         -1.37886       -0.82915       -1.44616
H         -2.29263       -0.57732       -1.24813
